10683	'GENCLS'	1	3.3329	3.3329	/
/					
/					
/					
/					
10684	'GENCLS'	1	3.3043	3.3043	/
/					
/					
/					
/					
10685	'GENCLS'	1	3.9867	3.9867	/
/					
/					
/					
/					
10686	'GENCLS'	1	3.4389	3.4389	/
/					
/					
/					
/					
10687	'GENCLS'	1	3.1396	3.1396	/
/					
/					
/					
/					
10688	'GENCLS'	1	3.3896	3.3896	/
/					
/					
/					
/					
10689	'GENCLS'	1	2.5296	2.5296	/
/					
/					
/					
/					
10694	'GENCLS'	1	3.4987	3.4987	/
/					
/					
/					
/					
10695	'GENCLS'	1	3.9879	3.9879	/
/					
/					
/					
/					
10710	'GENCLS'	1	3.8162	3.8162	/
/					
/					
/					
/					
10711	'GENCLS'	1	3.6935	3.6935	/
/					
/					
/					
/					
10712	'GENCLS'	1	3.2801	3.2801	/
/					
/					
/					
/					
10713	'GENCLS'	1	3.1355	3.1355	/
/					
/					
/					
/					
10714	'GENCLS'	1	2.8238	2.8238	/
/					
/					
/					
/					
10715	'GENCLS'	1	2.6417	2.6417	/
/					
/					
/					
/					
10722	'GENCLS'	1	3.0414	3.0414	/
/					
/					
/					
/					
10723	'GENCLS'	1	2.2733	2.2733	/
/					
/					
/					
/					
10724	'GENCLS'	1	2.9509	2.9509	/
/					
/					
/					
/					
10725	'GENCLS'	1	3.9058	3.9058	/
/					
/					
/					
/					
10726	'GENCLS'	1	3.1782	3.1782	/
/					
/					
/					
/					
10727	'GENCLS'	1	2.4037	2.4037	/
/					
/					
/					
/					
10728	'GENCLS'	1	1.9858	1.9858	/
/					
/					
/					
/					
10728	'GENCLS'	2	2.0601	2.0601	/
/					
/					
/					
/					
10729	'GENCLS'	1	2.6624	2.6624	/
/					
/					
/					
/					
10729	'GENCLS'	2	2.25	2.25	/
/					
/					
/					
/					
10731	'GENCLS'	1	1.9888	1.9888	/
/					
/					
/					
/					
10731	'GENCLS'	2	1.6265	1.6265	/
/					
/					
/					
/					
10731	'GENCLS'	3	1.6612	1.6612	/
/					
/					
/					
/					
10731	'GENCLS'	4	3.3064	3.3064	/
/					
/					
/					
/					
10731	'GENCLS'	5	2.6018	2.6018	/
/					
/					
/					
/					
10737	'GENCLS'	1	0.0586	0.0586	/
/					
/					
/					
/					
10738	'GENCLS'	1	0.0454	0.0454	/
/					
/					
/					
/					
10742	'GENCLS'	1	2.7349	2.7349	/
/					
/					
/					
/					
10743	'GENCLS'	1	2.7936	2.7936	/
/					
/					
/					
/					
10744	'GENCLS'	1	3.6153	3.6153	/
/					
/					
/					
/					
10750	'GENCLS'	1	2.6728	2.6728	/
/					
/					
/					
/					
10751	'GENCLS'	1	2.8131	2.8131	/
/					
/					
/					
/					
10752	'GENCLS'	1	3.9924	3.9924	/
/					
/					
/					
/					
10753	'GENCLS'	1	2.3869	2.3869	/
/					
/					
/					
/					
10754	'GENCLS'	1	2.2358	2.2358	/
/					
/					
/					
/					
10755	'GENCLS'	1	2.1103	2.1103	/
/					
/					
/					
/					
10757	'GENCLS'	1	2.4047	2.4047	/
/					
/					
/					
/					
10757	'GENCLS'	2	3.4626	3.4626	/
/					
/					
/					
/					
10757	'GENCLS'	3	2.2467	2.2467	/
/					
/					
/					
/					
10757	'GENCLS'	4	3.7953	3.7953	/
/					
/					
/					
/					
10758	'GENCLS'	1	3.6802	3.6802	/
/					
/					
/					
/					
10758	'GENCLS'	2	2.5798	2.5798	/
/					
/					
/					
/					
10771	'GENCLS'	1	3.3609	3.3609	/
/					
/					
/					
/					
10772	'GENCLS'	1	3.1366	3.1366	/
/					
/					
/					
/					
10773	'GENCLS'	1	3.5461	3.5461	/
/					
/					
/					
/					
10774	'GENCLS'	1	2.0336	2.0336	/
/					
/					
/					
/					
10778	'GENCLS'	1	2.2187	2.2187	/
/					
/					
/					
/					
10778	'GENCLS'	2	2.395	2.395	/
/					
/					
/					
/					
10796	'GENCLS'	1	0.0812	0.0812	/
/					
/					
/					
/					
10797	'GENCLS'	1	0.0595	0.0595	/
/					
/					
/					
/					
10797	'GENCLS'	2	0.069	0.069	/
/					
/					
/					
/					
10798	'GENCLS'	1	0.0709	0.0709	/
/					
/					
/					
/					
10802	'GENCLS'	1	3.9891	3.9891	/
/					
/					
/					
/					
10803	'GENCLS'	1	2.3007	2.3007	/
/					
/					
/					
/					
10806	'GENCLS'	1	3.0575	3.0575	/
/					
/					
/					
/					
10806	'GENCLS'	2	3.2362	3.2362	/
/					
/					
/					
/					
10807	'GENCLS'	1	3.3156	3.3156	/
/					
/					
/					
/					
10807	'GENCLS'	2	3.531	3.531	/
/					
/					
/					
/					
10811	'GENCLS'	1	0.0635	0.0635	/
/					
/					
/					
/					
10813	'GENCLS'	1	3.7462	3.7462	/
/					
/					
/					
/					
10813	'GENCLS'	2	3.9129	3.9129	/
/					
/					
/					
/					
10829	'GENCLS'	1	3.686	3.686	/
/					
/					
/					
/					
10830	'GENCLS'	1	3.7503	3.7503	/
/					
/					
/					
/					
10831	'GENCLS'	1	2.1171	2.1171	/
/					
/					
/					
/					
10832	'GENCLS'	1	2.0379	2.0379	/
/					
/					
/					
/					
10833	'GENCLS'	1	3.8267	3.8267	/
/					
/					
/					
/					
10834	'GENCLS'	1	2.5088	2.5088	/
/					
/					
/					
/					
10836	'GENCLS'	1	0.0645	0.0645	/
/					
/					
/					
/					
10836	'GENCLS'	2	0.0742	0.0742	/
/					
/					
/					
/					
10842	'GENCLS'	1	1.3631	1.3631	/
/					
/					
/					
/					
10842	'GENCLS'	2	1.8004	1.8004	/
/					
/					
/					
/					
10843	'GENCLS'	1	3.832	3.832	/
/					
/					
/					
/					
10843	'GENCLS'	2	2.7982	2.7982	/
/					
/					
/					
/					
10843	'GENCLS'	3	3.0324	3.0324	/
/					
/					
/					
/					
10847	'GENCLS'	1	3.198	3.198	/
/					
/					
/					
/					
10848	'GENCLS'	1	2.2912	2.2912	/
/					
/					
/					
/					
10849	'GENCLS'	1	3.1629	3.1629	/
/					
/					
/					
/					
10850	'GENCLS'	1	3.3082	3.3082	/
/					
/					
/					
/					
10851	'GENCLS'	1	2.2371	2.2371	/
/					
/					
/					
/					
10852	'GENCLS'	1	3.578	3.578	/
/					
/					
/					
/					
10853	'GENCLS'	1	1.6644	1.6644	/
/					
/					
/					
/					
10859	'GENCLS'	1	0.0498	0.0498	/
/					
/					
/					
/					
10860	'GENCLS'	1	0.0468	0.0468	/
/					
/					
/					
/					
10864	'GENCLS'	1	2.3722	2.3722	/
/					
/					
/					
/					
10865	'GENCLS'	1	3.9368	3.9368	/
/					
/					
/					
/					
10867	'GENCLS'	1	2.2222	2.2222	/
/					
/					
/					
/					
10867	'GENCLS'	2	3.7311	3.7311	/
/					
/					
/					
/					
10869	'GENCLS'	1	2.6991	2.6991	/
/					
/					
/					
/					
10869	'GENCLS'	2	2.7277	2.7277	/
/					
/					
/					
/					
10872	'GENCLS'	1	0.089	0.089	/
/					
/					
/					
/					
10873	'GENCLS'	1	1.7751	1.7751	/
/					
/					
/					
/					
10873	'GENCLS'	2	3.9509	3.9509	/
/					
/					
/					
/					
10879	'GENCLS'	1	2.5628	2.5628	/
/					
/					
/					
/					
10880	'GENCLS'	1	3.9923	3.9923	/
/					
/					
/					
/					
10881	'GENCLS'	1	2.4271	2.4271	/
/					
/					
/					
/					
10882	'GENCLS'	1	3.3548	3.3548	/
/					
/					
/					
/					
10883	'GENCLS'	1	2.6492	2.6492	/
/					
/					
/					
/					
10884	'GENCLS'	1	3.0705	3.0705	/
/					
/					
/					
/					
10889	'GENCLS'	1	0.0957	0.0957	/
/					
/					
/					
/					
10890	'GENCLS'	1	0.0806	0.0806	/
/					
/					
/					
/					
10895	'GENCLS'	1	0.0805	0.0805	/
/					
/					
/					
/					
10896	'GENCLS'	1	0.0888	0.0888	/
/					
/					
/					
/					
10897	'GENCLS'	1	0.0617	0.0617	/
/					
/					
/					
/					
10898	'GENCLS'	1	0.0696	0.0696	/
/					
/					
/					
/					
10901	'GENCLS'	1	2.1754	2.1754	/
/					
/					
/					
/					
10902	'GENCLS'	1	3.1084	3.1084	/
/					
/					
/					
/					
10908	'GENCLS'	1	3.6626	3.6626	/
/					
/					
/					
/					
10909	'GENCLS'	1	2.4958	2.4958	/
/					
/					
/					
/					
10910	'GENCLS'	1	2.13	2.13	/
/					
/					
/					
/					
10911	'GENCLS'	1	3.5819	3.5819	/
/					
/					
/					
/					
10912	'GENCLS'	1	2.0103	2.0103	/
/					
/					
/					
/					
10913	'GENCLS'	1	3.6272	3.6272	/
/					
/					
/					
/					
10914	'GENCLS'	1	2.2519	2.2519	/
/					
/					
/					
/					
10919	'GENCLS'	1	2.3347	2.3347	/
/					
/					
/					
/					
10920	'GENCLS'	1	3.4911	3.4911	/
/					
/					
/					
/					
10921	'GENCLS'	1	3.0103	3.0103	/
/					
/					
/					
/					
10922	'GENCLS'	1	3.2576	3.2576	/
/					
/					
/					
/					
10923	'GENCLS'	1	0.0685	0.0685	/
/					
/					
/					
/					
10923	'GENCLS'	2	0.0533	0.0533	/
/					
/					
/					
/					
10925	'GENCLS'	1	2.6407	2.6407	/
/					
/					
/					
/					
10925	'GENCLS'	2	1.9914	1.9914	/
/					
/					
/					
/					
10930	'GENCLS'	1	0.0652	0.0652	/
/					
/					
/					
/					
10931	'GENCLS'	1	0.0481	0.0481	/
/					
/					
/					
/					
10932	'GENCLS'	1	0.0726	0.0726	/
/					
/					
/					
/					
10934	'GENCLS'	1	2.5874	2.5874	/
/					
/					
/					
/					
10934	'GENCLS'	2	2.8615	2.8615	/
/					
/					
/					
/					
10944	'GENCLS'	1	2.6167	2.6167	/
/					
/					
/					
/					
10945	'GENCLS'	1	2.4301	2.4301	/
/					
/					
/					
/					
10946	'GENCLS'	1	2.4966	2.4966	/
/					
/					
/					
/					
10947	'GENCLS'	1	2.9424	2.9424	/
/					
/					
/					
/					
10948	'GENCLS'	1	3.0587	3.0587	/
/					
/					
/					
/					
10949	'GENCLS'	1	2.8144	2.8144	/
/					
/					
/					
/					
10951	'GENCLS'	1	3.303	3.303	/
/					
/					
/					
/					
10951	'GENCLS'	2	2.2675	2.2675	/
/					
/					
/					
/					
10955	'GENCLS'	1	3.3259	3.3259	/
/					
/					
/					
/					
10955	'GENCLS'	2	2.1188	2.1188	/
/					
/					
/					
/					
10956	'GENCLS'	1	2.3365	2.3365	/
/					
/					
/					
/					
10956	'GENCLS'	2	2.5518	2.5518	/
/					
/					
/					
/					
10966	'GENCLS'	1	1.5063	1.5063	/
/					
/					
/					
/					
10966	'GENCLS'	2	2.8338	2.8338	/
/					
/					
/					
/					
10966	'GENCLS'	3	2.2598	2.2598	/
/					
/					
/					
/					
10969	'GENCLS'	1	0.0717	0.0717	/
/					
/					
/					
/					
10972	'GENCLS'	1	2.5684	2.5684	/
/					
/					
/					
/					
10972	'GENCLS'	2	3.0567	3.0567	/
/					
/					
/					
/					
10973	'GENCLS'	1	3.5749	3.5749	/
/					
/					
/					
/					
10973	'GENCLS'	2	1.8491	1.8491	/
/					
/					
/					
/					
10989	'GENCLS'	1	0.086	0.086	/
/					
/					
/					
/					
10990	'GENCLS'	1	0.0811	0.0811	/
/					
/					
/					
/					
10991	'GENCLS'	1	0.0941	0.0941	/
/					
/					
/					
/					
10993	'GENCLS'	1	3.5418	3.5418	/
/					
/					
/					
/					
10993	'GENCLS'	2	3.7319	3.7319	/
/					
/					
/					
/					
10994	'GENCLS'	1	2.1603	2.1603	/
/					
/					
/					
/					
10995	'GENCLS'	1	3.712	3.712	/
/					
/					
/					
/					
10998	'GENCLS'	1	3.2622	3.2622	/
/					
/					
/					
/					
10998	'GENCLS'	2	3.0563	3.0563	/
/					
/					
/					
/					
11005	'GENCLS'	1	0.0936	0.0936	/
/					
/					
/					
/					
11006	'GENCLS'	1	0.0826	0.0826	/
/					
/					
/					
/					
11008	'GENCLS'	1	3.3088	3.3088	/
/					
/					
/					
/					
11009	'GENCLS'	1	3.1018	3.1018	/
/					
/					
/					
/					
11009	'GENCLS'	2	2.6441	2.6441	/
/					
/					
/					
/					
11014	'GENCLS'	1	3.87	3.87	/
/					
/					
/					
/					
11015	'GENCLS'	1	3.965	3.965	/
/					
/					
/					
/					
11016	'GENCLS'	1	2.5597	2.5597	/
/					
/					
/					
/					
11017	'GENCLS'	1	2.9191	2.9191	/
/					
/					
/					
/					
11018	'GENCLS'	1	2.682	2.682	/
/					
/					
/					
/					
11019	'GENCLS'	1	2.4233	2.4233	/
/					
/					
/					
/					
11020	'GENCLS'	1	3.7837	3.7837	/
/					
/					
/					
/					
11021	'GENCLS'	1	2.5732	2.5732	/
/					
/					
/					
/					
11022	'GENCLS'	1	3.5398	3.5398	/
/					
/					
/					
/					
11023	'GENCLS'	1	2.0043	2.0043	/
/					
/					
/					
/					
11024	'GENCLS'	1	2.7811	2.7811	/
/					
/					
/					
/					
11025	'GENCLS'	1	2.6783	2.6783	/
/					
/					
/					
/					
11031	'GENCLS'	1	0.0459	0.0459	/
/					
/					
/					
/					
11032	'GENCLS'	1	0.0562	0.0562	/
/					
/					
/					
/					
11033	'GENCLS'	1	0.0912	0.0912	/
/					
/					
/					
/					
11037	'GENCLS'	1	2.4821	2.4821	/
/					
/					
/					
/					
11037	'GENCLS'	2	3.3889	3.3889	/
/					
/					
/					
/					
11037	'GENCLS'	3	2.5442	2.5442	/
/					
/					
/					
/					
11041	'GENCLS'	1	2.5639	2.5639	/
/					
/					
/					
/					
11042	'GENCLS'	1	2.9484	2.9484	/
/					
/					
/					
/					
11043	'GENCLS'	1	2.4229	2.4229	/
/					
/					
/					
/					
11044	'GENCLS'	1	2.03	2.03	/
/					
/					
/					
/					
11045	'GENCLS'	1	2.7299	2.7299	/
/					
/					
/					
/					
11046	'GENCLS'	1	2.6723	2.6723	/
/					
/					
/					
/					
11047	'GENCLS'	1	3.5595	3.5595	/
/					
/					
/					
/					
11050	'GENCLS'	1	0.0593	0.0593	/
/					
/					
/					
/					
11054	'GENCLS'	1	2.3492	2.3492	/
/					
/					
/					
/					
11054	'GENCLS'	2	3.3961	3.3961	/
/					
/					
/					
/					
11054	'GENCLS'	3	1.5775	1.5775	/
/					
/					
/					
/					
11054	'GENCLS'	4	3.7688	3.7688	/
/					
/					
/					
/					
11062	'GENCLS'	1	0.0607	0.0607	/
/					
/					
/					
/					
11062	'GENCLS'	2	0.0499	0.0499	/
/					
/					
/					
/					
11062	'GENCLS'	3	0.0472	0.0472	/
/					
/					
/					
/					
11062	'GENCLS'	4	0.0599	0.0599	/
/					
/					
/					
/					
11072	'GENCLS'	1	0.0598	0.0598	/
/					
/					
/					
/					
11073	'GENCLS'	1	0.0503	0.0503	/
/					
/					
/					
/					
11077	'GENCLS'	1	2.0774	2.0774	/
/					
/					
/					
/					
11078	'GENCLS'	1	3.052	3.052	/
/					
/					
/					
/					
11079	'GENCLS'	1	3.6111	3.6111	/
/					
/					
/					
/					
11080	'GENCLS'	1	2.6353	2.6353	/
/					
/					
/					
/					
11081	'GENCLS'	1	3.1691	3.1691	/
/					
/					
/					
/					
11082	'GENCLS'	1	3.3658	3.3658	/
/					
/					
/					
/					
13454	'GENCLS'	1	3.4355	3.4355	/
/					
/					
/					
/					
13454	'GENCLS'	2	2.8387	2.8387	/
/					
/					
/					
/					
13454	'GENCLS'	3	2.5634	2.5634	/
/					
/					
/					
/					
13460	'GENCLS'	1	3.7195	3.7195	/
/					
/					
/					
/					
13460	'GENCLS'	2	2.0156	2.0156	/
/					
/					
/					
/					
13460	'GENCLS'	3	3.9795	3.9795	/
/					
/					
/					
/					
13462	'GENCLS'	1	0.0618	0.0618	/
/					
/					
/					
/					
13462	'GENCLS'	2	0.068	0.068	/
/					
/					
/					
/					
13462	'GENCLS'	3	0.0609	0.0609	/
/					
/					
/					
/					
13462	'GENCLS'	4	0.0774	0.0774	/
/					
/					
/					
/					
13462	'GENCLS'	5	0.0834	0.0834	/
/					
/					
/					
/					
13462	'GENCLS'	6	0.0992	0.0992	/
/					
/					
/					
/					
13475	'GENCLS'	1	3.7167	3.7167	/
/					
/					
/					
/					
13476	'GENCLS'	1	2.9289	2.9289	/
/					
/					
/					
/					
13477	'GENCLS'	1	3.4381	3.4381	/
/					
/					
/					
/					
13478	'GENCLS'	1	2.8923	2.8923	/
/					
/					
/					
/					
13479	'GENCLS'	1	3.941	3.941	/
/					
/					
/					
/					
13480	'GENCLS'	1	2.2739	2.2739	/
/					
/					
/					
/					
13488	'GENCLS'	1	2.7498	2.7498	/
/					
/					
/					
/					
13488	'GENCLS'	2	3.7311	3.7311	/
/					
/					
/					
/					
13489	'GENCLS'	1	2.3601	2.3601	/
/					
/					
/					
/					
13499	'GENCLS'	1	2.8637	2.8637	/
/					
/					
/					
/					
13500	'GENCLS'	1	3.7354	3.7354	/
/					
/					
/					
/					
13501	'GENCLS'	1	3.2196	3.2196	/
/					
/					
/					
/					
13502	'GENCLS'	1	3.8772	3.8772	/
/					
/					
/					
/					
13503	'GENCLS'	1	3.4815	3.4815	/
/					
/					
/					
/					
13504	'GENCLS'	1	3.5597	3.5597	/
/					
/					
/					
/					
13509	'GENCLS'	1	0.0744	0.0744	/
/					
/					
/					
/					
13510	'GENCLS'	1	0.0613	0.0613	/
/					
/					
/					
/					
13511	'GENCLS'	1	0.0441	0.0441	/
/					
/					
/					
/					
13513	'GENCLS'	1	3.1652	3.1652	/
/					
/					
/					
/					
13513	'GENCLS'	2	3.0816	3.0816	/
/					
/					
/					
/					
13522	'GENCLS'	1	0.0497	0.0497	/
/					
/					
/					
/					
13522	'GENCLS'	2	0.0906	0.0906	/
/					
/					
/					
/					
13522	'GENCLS'	3	0.0773	0.0773	/
/					
/					
/					
/					
13522	'GENCLS'	4	0.0851	0.0851	/
/					
/					
/					
/					
13526	'GENCLS'	1	2.7106	2.7106	/
/					
/					
/					
/					
13527	'GENCLS'	1	2.5249	2.5249	/
/					
/					
/					
/					
13528	'GENCLS'	1	2.5005	2.5005	/
/					
/					
/					
/					
13533	'GENCLS'	1	2.6044	2.6044	/
/					
/					
/					
/					
13534	'GENCLS'	1	2.6753	2.6753	/
/					
/					
/					
/					
13539	'GENCLS'	1	0.0434	0.0434	/
/					
/					
/					
/					
13540	'GENCLS'	1	0.0477	0.0477	/
/					
/					
/					
/					
13541	'GENCLS'	1	0.0821	0.0821	/
/					
/					
/					
/					
13542	'GENCLS'	1	0.0707	0.0707	/
/					
/					
/					
/					
13543	'GENCLS'	1	3.2918	3.2918	/
/					
/					
/					
/					
13543	'GENCLS'	2	2.7485	2.7485	/
/					
/					
/					
/					
13544	'GENCLS'	1	3.1438	3.1438	/
/					
/					
/					
/					
13544	'GENCLS'	2	2.6961	2.6961	/
/					
/					
/					
/					
13551	'GENCLS'	1	0.0521	0.0521	/
/					
/					
/					
/					
13552	'GENCLS'	1	0.0983	0.0983	/
/					
/					
/					
/					
13559	'GENCLS'	1	0.0633	0.0633	/
/					
/					
/					
/					
13560	'GENCLS'	1	0.0636	0.0636	/
/					
/					
/					
/					
13561	'GENCLS'	1	0.0605	0.0605	/
/					
/					
/					
/					
13577	'GENCLS'	1	3.185	3.185	/
/					
/					
/					
/					
13578	'GENCLS'	1	3.4524	3.4524	/
/					
/					
/					
/					
13578	'GENCLS'	2	3.963	3.963	/
/					
/					
/					
/					
13583	'GENCLS'	1	1.9472	1.9472	/
/					
/					
/					
/					
13583	'GENCLS'	2	2.3578	2.3578	/
/					
/					
/					
/					
13584	'GENCLS'	1	2.0606	2.0606	/
/					
/					
/					
/					
13585	'GENCLS'	1	2.7492	2.7492	/
/					
/					
/					
/					
13586	'GENCLS'	1	2.4198	2.4198	/
/					
/					
/					
/					
13586	'GENCLS'	2	2.3704	2.3704	/
/					
/					
/					
/					
13587	'GENCLS'	1	2.5149	2.5149	/
/					
/					
/					
/					
13593	'GENCLS'	1	2.0453	2.0453	/
/					
/					
/					
/					
13593	'GENCLS'	2	2.1082	2.1082	/
/					
/					
/					
/					
13597	'GENCLS'	1	3.9632	3.9632	/
/					
/					
/					
/					
13598	'GENCLS'	1	3.2124	3.2124	/
/					
/					
/					
/					
13599	'GENCLS'	1	2.9142	2.9142	/
/					
/					
/					
/					
13600	'GENCLS'	1	1.9399	1.9399	/
/					
/					
/					
/					
13600	'GENCLS'	2	3.5008	3.5008	/
/					
/					
/					
/					
13602	'GENCLS'	1	1.4985	1.4985	/
/					
/					
/					
/					
13603	'GENCLS'	1	2.7045	2.7045	/
/					
/					
/					
/					
13612	'GENCLS'	1	2.2592	2.2592	/
/					
/					
/					
/					
13612	'GENCLS'	2	1.705	1.705	/
/					
/					
/					
/					
13613	'GENCLS'	1	2.5645	2.5645	/
/					
/					
/					
/					
13625	'GENCLS'	1	2.0558	2.0558	/
/					
/					
/					
/					
13626	'GENCLS'	1	2.4939	2.4939	/
/					
/					
/					
/					
13627	'GENCLS'	1	2.0646	2.0646	/
/					
/					
/					
/					
13628	'GENCLS'	1	3.7378	3.7378	/
/					
/					
/					
/					
13629	'GENCLS'	1	3.8757	3.8757	/
/					
/					
/					
/					
13630	'GENCLS'	1	2.2581	2.2581	/
/					
/					
/					
/					
13633	'GENCLS'	1	2.3954	2.3954	/
/					
/					
/					
/					
13645	'GENCLS'	1	0.0575	0.0575	/
/					
/					
/					
/					
13645	'GENCLS'	2	0.0811	0.0811	/
/					
/					
/					
/					
13645	'GENCLS'	3	0.0455	0.0455	/
/					
/					
/					
/					
13645	'GENCLS'	4	0.0933	0.0933	/
/					
/					
/					
/					
13645	'GENCLS'	5	0.0959	0.0959	/
/					
/					
/					
/					
13645	'GENCLS'	6	0.0632	0.0632	/
/					
/					
/					
/					
13646	'GENCLS'	1	0.0463	0.0463	/
/					
/					
/					
/					
13646	'GENCLS'	2	0.0629	0.0629	/
/					
/					
/					
/					
13646	'GENCLS'	3	0.0769	0.0769	/
/					
/					
/					
/					
13650	'GENCLS'	1	3.2054	3.2054	/
/					
/					
/					
/					
13650	'GENCLS'	2	2.2171	2.2171	/
/					
/					
/					
/					
13652	'GENCLS'	1	2.3701	2.3701	/
/					
/					
/					
/					
13653	'GENCLS'	1	2.9445	2.9445	/
/					
/					
/					
/					
13655	'GENCLS'	1	3.9601	3.9601	/
/					
/					
/					
/					
13655	'GENCLS'	2	1.9032	1.9032	/
/					
/					
/					
/					
13658	'GENCLS'	1	1.6825	1.6825	/
/					
/					
/					
/					
13658	'GENCLS'	2	2.6775	2.6775	/
/					
/					
/					
/					
13659	'GENCLS'	1	2.74	2.74	/
/					
/					
/					
/					
13659	'GENCLS'	2	1.6892	1.6892	/
/					
/					
/					
/					
13663	'GENCLS'	1	1.8676	1.8676	/
/					
/					
/					
/					
13663	'GENCLS'	2	3.2354	3.2354	/
/					
/					
/					
/					
13663	'GENCLS'	3	3.8964	3.8964	/
/					
/					
/					
/					
13663	'GENCLS'	4	3.2119	3.2119	/
/					
/					
/					
/					
13665	'GENCLS'	1	3.4126	3.4126	/
/					
/					
/					
/					
13665	'GENCLS'	2	3.1011	3.1011	/
/					
/					
/					
/					
13669	'GENCLS'	1	3.0597	3.0597	/
/					
/					
/					
/					
13670	'GENCLS'	1	3.0156	3.0156	/
/					
/					
/					
/					
13671	'GENCLS'	1	3.8066	3.8066	/
/					
/					
/					
/					
13672	'GENCLS'	1	2.0118	2.0118	/
/					
/					
/					
/					
13673	'GENCLS'	1	2.2863	2.2863	/
/					
/					
/					
/					
13674	'GENCLS'	1	2.8723	2.8723	/
/					
/					
/					
/					
13677	'GENCLS'	1	0.0657	0.0657	/
/					
/					
/					
/					
13678	'GENCLS'	1	0.0488	0.0488	/
/					
/					
/					
/					
13680	'GENCLS'	1	1.8173	1.8173	/
/					
/					
/					
/					
13693	'GENCLS'	1	0.0842	0.0842	/
/					
/					
/					
/					
13694	'GENCLS'	1	0.0727	0.0727	/
/					
/					
/					
/					
13698	'GENCLS'	1	0.053	0.053	/
/					
/					
/					
/					
20283	'GENCLS'	1	2.6396	2.6396	/
/					
/					
/					
/					
20284	'GENCLS'	1	2.4443	2.4443	/
/					
/					
/					
/					
20288	'GENCLS'	1	0.0527	0.0527	/
/					
/					
/					
/					
20295	'GENCLS'	1	2.5529	2.5529	/
/					
/					
/					
/					
20299	'GENCLS'	1	0.0963	0.0963	/
/					
/					
/					
/					
20300	'GENCLS'	1	0.049	0.049	/
/					
/					
/					
/					
20301	'GENCLS'	1	0.0684	0.0684	/
/					
/					
/					
/					
20302	'GENCLS'	1	0.0987	0.0987	/
/					
/					
/					
/					
20313	'GENCLS'	1	3.3099	3.3099	/
/					
/					
/					
/					
20314	'GENCLS'	1	3.8947	3.8947	/
/					
/					
/					
/					
20315	'GENCLS'	1	2.0906	2.0906	/
/					
/					
/					
/					
20319	'GENCLS'	1	3.6946	3.6946	/
/					
/					
/					
/					
20320	'GENCLS'	1	2.9163	2.9163	/
/					
/					
/					
/					
20323	'GENCLS'	1	3.8469	3.8469	/
/					
/					
/					
/					
20323	'GENCLS'	2	1.9495	1.9495	/
/					
/					
/					
/					
20323	'GENCLS'	3	1.8721	1.8721	/
/					
/					
/					
/					
20328	'GENCLS'	1	2.5179	2.5179	/
/					
/					
/					
/					
20329	'GENCLS'	1	2.0768	2.0768	/
/					
/					
/					
/					
20330	'GENCLS'	1	3.1546	3.1546	/
/					
/					
/					
/					
20330	'GENCLS'	2	3.8527	3.8527	/
/					
/					
/					
/					
20330	'GENCLS'	3	2.444	2.444	/
/					
/					
/					
/					
20330	'GENCLS'	4	3.8423	3.8423	/
/					
/					
/					
/					
20332	'GENCLS'	1	0.0582	0.0582	/
/					
/					
/					
/					
20332	'GENCLS'	2	0.0449	0.0449	/
/					
/					
/					
/					
20335	'GENCLS'	1	3.4505	3.4505	/
/					
/					
/					
/					
20335	'GENCLS'	2	3.9411	3.9411	/
/					
/					
/					
/					
20336	'GENCLS'	1	1.8204	1.8204	/
/					
/					
/					
/					
20336	'GENCLS'	2	3.7148	3.7148	/
/					
/					
/					
/					
20339	'GENCLS'	1	0.0515	0.0515	/
/					
/					
/					
/					
20339	'GENCLS'	2	0.0808	0.0808	/
/					
/					
/					
/					
20339	'GENCLS'	3	0.0705	0.0705	/
/					
/					
/					
/					
20344	'GENCLS'	1	2.1197	2.1197	/
/					
/					
/					
/					
20344	'GENCLS'	2	2.0274	2.0274	/
/					
/					
/					
/					
20345	'GENCLS'	1	1.2681	1.2681	/
/					
/					
/					
/					
20345	'GENCLS'	2	3.7175	3.7175	/
/					
/					
/					
/					
20347	'GENCLS'	1	3.6118	3.6118	/
/					
/					
/					
/					
20351	'GENCLS'	1	2.6175	2.6175	/
/					
/					
/					
/					
20351	'GENCLS'	2	3.7175	3.7175	/
/					
/					
/					
/					
20353	'GENCLS'	1	2.6646	2.6646	/
/					
/					
/					
/					
20353	'GENCLS'	2	3.98	3.98	/
/					
/					
/					
/					
20355	'GENCLS'	1	0.0927	0.0927	/
/					
/					
/					
/					
20355	'GENCLS'	2	0.066	0.066	/
/					
/					
/					
/					
20356	'GENCLS'	1	0.041667	0.041667	/
/					
/					
/					
/					
20357	'GENCLS'	1	3.1669	3.1669	/
/					
/					
/					
/					
20357	'GENCLS'	2	2.6128	2.6128	/
/					
/					
/					
/					
20357	'GENCLS'	3	1.924	1.924	/
/					
/					
/					
/					
20367	'GENCLS'	1	3.4725	3.4725	/
/					
/					
/					
/					
20368	'GENCLS'	1	3.146	3.146	/
/					
/					
/					
/					
20369	'GENCLS'	1	1.5034	1.5034	/
/					
/					
/					
/					
20369	'GENCLS'	2	2.4247	2.4247	/
/					
/					
/					
/					
20370	'GENCLS'	1	2.5586	2.5586	/
/					
/					
/					
/					
20371	'GENCLS'	1	1.1811	1.1811	/
/					
/					
/					
/					
20371	'GENCLS'	2	1.1756	1.1756	/
/					
/					
/					
/					
20372	'GENCLS'	1	3.7874	3.7874	/
/					
/					
/					
/					
20372	'GENCLS'	2	3.7584	3.7584	/
/					
/					
/					
/					
20372	'GENCLS'	3	2.166	2.166	/
/					
/					
/					
/					
20376	'GENCLS'	1	3.4411	3.4411	/
/					
/					
/					
/					
20377	'GENCLS'	1	2.8899	2.8899	/
/					
/					
/					
/					
20379	'GENCLS'	1	2.263	2.263	/
/					
/					
/					
/					
20379	'GENCLS'	2	3.047	3.047	/
/					
/					
/					
/					
20383	'GENCLS'	1	3.8441	3.8441	/
/					
/					
/					
/					
20384	'GENCLS'	1	2.2832	2.2832	/
/					
/					
/					
/					
20385	'GENCLS'	1	2.2976	2.2976	/
/					
/					
/					
/					
20385	'GENCLS'	2	2.3134	2.3134	/
/					
/					
/					
/					
20385	'GENCLS'	3	3.6018	3.6018	/
/					
/					
/					
/					
20390	'GENCLS'	1	2.4999	2.4999	/
/					
/					
/					
/					
20391	'GENCLS'	1	2.3824	2.3824	/
/					
/					
/					
/					
20392	'GENCLS'	1	2.5321	2.5321	/
/					
/					
/					
/					
20393	'GENCLS'	1	2.5014	2.5014	/
/					
/					
/					
/					
20394	'GENCLS'	1	3.6433	3.6433	/
/					
/					
/					
/					
20395	'GENCLS'	1	2.6924	2.6924	/
/					
/					
/					
/					
20396	'GENCLS'	1	2.6507	2.6507	/
/					
/					
/					
/					
20396	'GENCLS'	2	2.7444	2.7444	/
/					
/					
/					
/					
20396	'GENCLS'	3	2.0426	2.0426	/
/					
/					
/					
/					
20397	'GENCLS'	1	3.0082	3.0082	/
/					
/					
/					
/					
20397	'GENCLS'	2	3.392	3.392	/
/					
/					
/					
/					
20406	'GENCLS'	1	3.2723	3.2723	/
/					
/					
/					
/					
20407	'GENCLS'	1	2.6606	2.6606	/
/					
/					
/					
/					
20410	'GENCLS'	1	3.7431	3.7431	/
/					
/					
/					
/					
20412	'GENCLS'	1	2.5334	2.5334	/
/					
/					
/					
/					
20413	'GENCLS'	1	2.9525	2.9525	/
/					
/					
/					
/					
20415	'GENCLS'	1	3.7178	3.7178	/
/					
/					
/					
/					
20416	'GENCLS'	1	2.6508	2.6508	/
/					
/					
/					
/					
20416	'GENCLS'	2	2.3404	2.3404	/
/					
/					
/					
/					
20416	'GENCLS'	3	2.9829	2.9829	/
/					
/					
/					
/					
20416	'GENCLS'	4	3.6533	3.6533	/
/					
/					
/					
/					
20418	'GENCLS'	1	2.4477	2.4477	/
/					
/					
/					
/					
20418	'GENCLS'	2	3.1789	3.1789	/
/					
/					
/					
/					
20428	'GENCLS'	1	0.0612	0.0612	/
/					
/					
/					
/					
20429	'GENCLS'	1	0.0896	0.0896	/
/					
/					
/					
/					
20430	'GENCLS'	1	0.0775	0.0775	/
/					
/					
/					
/					
20435	'GENCLS'	1	1.7663	1.7663	/
/					
/					
/					
/					
20435	'GENCLS'	2	1.6586	1.6586	/
/					
/					
/					
/					
20439	'GENCLS'	1	2.8454	2.8454	/
/					
/					
/					
/					
20440	'GENCLS'	1	2.1732	2.1732	/
/					
/					
/					
/					
20441	'GENCLS'	1	3.6143	3.6143	/
/					
/					
/					
/					
20442	'GENCLS'	1	3.0752	3.0752	/
/					
/					
/					
/					
20443	'GENCLS'	1	2.803	2.803	/
/					
/					
/					
/					
20444	'GENCLS'	1	3.9808	3.9808	/
/					
/					
/					
/					
20445	'GENCLS'	1	2.3049	2.3049	/
/					
/					
/					
/					
20453	'GENCLS'	1	0.0683	0.0683	/
/					
/					
/					
/					
20454	'GENCLS'	1	3.1936	3.1936	/
/					
/					
/					
/					
20456	'GENCLS'	1	0.0515	0.0515	/
/					
/					
/					
/					
20460	'GENCLS'	1	0.0647	0.0647	/
/					
/					
/					
/					
20462	'GENCLS'	1	1.94	1.94	/
/					
/					
/					
/					
20462	'GENCLS'	2	2.1063	2.1063	/
/					
/					
/					
/					
20462	'GENCLS'	3	3.1121	3.1121	/
/					
/					
/					
/					
20468	'GENCLS'	1	0.0816	0.0816	/
/					
/					
/					
/					
20469	'GENCLS'	1	0.0649	0.0649	/
/					
/					
/					
/					
20470	'GENCLS'	1	0.0547	0.0547	/
/					
/					
/					
/					
20471	'GENCLS'	1	0.0978	0.0978	/
/					
/					
/					
/					
20472	'GENCLS'	1	2.3465	2.3465	/
/					
/					
/					
/					
20478	'GENCLS'	1	3.4128	3.4128	/
/					
/					
/					
/					
20479	'GENCLS'	1	3.0512	3.0512	/
/					
/					
/					
/					
20482	'GENCLS'	1	2.574	2.574	/
/					
/					
/					
/					
20483	'GENCLS'	1	2.3912	2.3912	/
/					
/					
/					
/					
20494	'GENCLS'	1	2.691	2.691	/
/					
/					
/					
/					
20494	'GENCLS'	2	2.9064	2.9064	/
/					
/					
/					
/					
20499	'GENCLS'	1	0.0731	0.0731	/
/					
/					
/					
/					
20500	'GENCLS'	1	0.0805	0.0805	/
/					
/					
/					
/					
20502	'GENCLS'	1	0.0974	0.0974	/
/					
/					
/					
/					
20502	'GENCLS'	2	0.0974	0.0974	/
/					
/					
/					
/					
20503	'GENCLS'	1	0.0922	0.0922	/
/					
/					
/					
/					
20503	'GENCLS'	2	0.0817	0.0817	/
/					
/					
/					
/					
20505	'GENCLS'	1	3.3024	3.3024	/
/					
/					
/					
/					
20506	'GENCLS'	1	3.1774	3.1774	/
/					
/					
/					
/					
20509	'GENCLS'	1	0.0787	0.0787	/
/					
/					
/					
/					
20509	'GENCLS'	2	0.0634	0.0634	/
/					
/					
/					
/					
20509	'GENCLS'	3	0.0455	0.0455	/
/					
/					
/					